*Injection_1km_5bar_1kg.inp* ...  Injection into depleted reservoir (5Bar) at 1 km
ROCKS----1----*----2----*----3----*----4----*----5----*----6----*----7----*----8
wella    2  2065.897-3.8186E-2    1.e-104.57200E-5    1.e-10   2.5000   1266.067
    0.0e-9                            1.
    1           0.00      0.00        1.      1.00      0.0       1.0  
    8
wellb    2  2065.897-3.8186E-2    1.e-104.57200E-5   1.0e-10  -2.5000   1266.067
    0.0e-9                            1.
    1           0.00      0.00        1.      1.00      0.0       1.0  
    8
wellc    2  2065.897-1.7759E-2    1.e-104.57200E-5    1.e-10   2.5000   1266.067
    0.0e-9                            1.
    1           0.00      0.00        1.      1.00      0.0       1.0  
    8
caprk    2     2600.    .23670  1.01e-15  1.01e-15  1.01e-10   1.7213    1000.0
   8.5e-10
    7          0.457       .30      1.00       .20 
    7           .457       .36    8.0e-5      1.e7      .999
sand1    2     2600.    .30000  1.00e-13  1.00e-13  1.00e-13   2.5000    1000.0
   8.5e-10
    7          0.457       .30      1.00       .05 
    7           .457       .36    8.0e-5      1.e7      .999
GEOTH    1     2600.       .20     0.000     5.000   25.0000     1500.0   41.000
   -0.e-10                          1.00


 
MULTI----1----*----2----*----3----*----4----*----5----*----6----*----7----*----8
    3    4    4    6
SELEC....2....3....4....5....6....7....8....9...10...11...12...13...14...15...16
    1                                  1    0    0    0    0    0    0    0    0
        .8        .8     5.e-5     5.e-5

DRIFT maxC0 THBUffer      akut  Wfraction 
       1.0        .1      1.53       1.0                      

xOLVR----1----*----2----*----3----*----4----*----5----*----6----*----7----*----8
5  Z1   O0    8.0e-1    1.0e-7
START----1----*----2----*----3----*----4----*----5----*----6----*----7----*----8

----*----1 MOP: 123456789*123456789*1234 ---*----5----*----6----*----7----*----8
PARAM----1----*----2----*----3----*----4----*----5----*----6----*----7----*----8
   29999    10001010300010220  4    3  1
          8.6400E6    1.e-3    1.00E+6             9.8066       2.0
     1.E-7     1.E00                                        
 3
 0.5000000000000E+06 0.0000000000000E+00 0.1000000000000E+01 0.3062500000000E+02

DIFFU----1----*----2----*----3----*----4----*----5----*----6----*----7----*----8
   1.e-09    1.e-5      1.e-5
   1.e-09    0.e-10    0.e-10
   1.e-09    1.e-5      1.e-5

TIMES
15
7200.0    14400.0   21600.0   28800.0   36000.0    43200.0    50400.0  57600.0
64800.0   72000.0   79200.0   86400.0   1.7280E5   2.5920E5   3.4560E5

COFT ----1----*----2----*----3----*----4----*----5----*----6----*----7----*----8
1AA 1*bA 1                   32.5000E+011.0000E-153.8186E-02-1.000E+00                               0.000E+00 0.000E+00 0.000E+00
02A5002A 1                   11.7533E-027.5185E-022.3620E+01 0.000E+00                              7.5185E-02 0.000E+00 -3025.000


FOFT ----1----*----2----*----3----*----4----*----5----*----6----*----7----*----8
1AA 1          sand11.7759E+00                     0.000E+00 0.000E+00 -3050.000
02A 1          wellb1.9093E+000.0000E+000.0000E+00 0.000E+00 0.000E+00 -3025.000
02A50          sand11.0214E+002.0428E-020.0000E+009.2718E-02 0.000E+00 -3025.000
02A59          sand17.0425E+011.4085E+000.0000E+001.0427E+00 0.000E+00 -3025.000
02A71          sand16.2648E+031.2530E+020.0000E+001.0403E+01 0.000E+00 -3025.000
02A79          sand11.1702E+052.3404E+030.0000E+00    45.193 0.000E+00 -3025.000
02A84          sand17.0627E+051.4125E+040.0000E+00   112.407 0.000E+00 -3025.000
02A93          sand11.8479E+073.6958E+050.0000E+00   569.983 0.000E+00 -3025.000

GENER----1----*----2----*----3----*----4----*----5----*----6----*----7----*----8


ELEME
*bA 1          wella1.0000E-01                     0.000E+00 0.000E+00 0.000E+00
1AA 1          wellb1.9093E+000.0000E+000.0000E+00 0.000E+00 0.000E+00   -25.000
1BA 1          wellb1.9093E+000.0000E+000.0000E+00 0.000E+00 0.000E+00   -75.000
1CA 1          wellb1.9093E+000.0000E+000.0000E+00 0.000E+00 0.000E+00  -125.000
1DA 1          wellb1.9093E+000.0000E+000.0000E+00 0.000E+00 0.000E+00  -175.000
1EA 1          wellb1.9093E+000.0000E+000.0000E+00 0.000E+00 0.000E+00  -225.000
1FA 1          wellb1.9093E+000.0000E+000.0000E+00 0.000E+00 0.000E+00  -275.000
1GA 1          wellb1.9093E+000.0000E+000.0000E+00 0.000E+00 0.000E+00  -325.000
1HA 1          wellb1.9093E+000.0000E+000.0000E+00 0.000E+00 0.000E+00  -375.000
1IA 1          wellb1.9093E+000.0000E+000.0000E+00 0.000E+00 0.000E+00  -425.000
1JA 1          wellb1.9093E+000.0000E+000.0000E+00 0.000E+00 0.000E+00  -475.000
1KA 1          wellb1.9093E+000.0000E+000.0000E+00 0.000E+00 0.000E+00  -525.000
1LA 1          wellb1.9093E+000.0000E+000.0000E+00 0.000E+00 0.000E+00  -575.000
1MA 1          wellb1.9093E+000.0000E+000.0000E+00 0.000E+00 0.000E+00  -625.000
1NA 1          wellb1.9093E+000.0000E+000.0000E+00 0.000E+00 0.000E+00  -675.000
1OA 1          wellb1.9093E+000.0000E+000.0000E+00 0.000E+00 0.000E+00  -725.000
1PA 1          wellb1.9093E+000.0000E+000.0000E+00 0.000E+00 0.000E+00  -775.000
1QA 1          wellb1.9093E+000.0000E+000.0000E+00 0.000E+00 0.000E+00  -825.000
1RA 1          wellb1.9093E+000.0000E+000.0000E+00 0.000E+00 0.000E+00  -875.000
1SA 1          wellb1.9093E+000.0000E+000.0000E+00 0.000E+00 0.000E+00  -925.000
1TA 1          wellb1.9093E+000.0000E+000.0000E+00 0.000E+00 0.000E+00  -975.000
02A 1          wellc1.9093E+000.0000E+000.0000E+00 0.000E+00 0.000E+00 -1025.000
02A50          sand11.0214E+000.0000E+000.0000E+009.2718E-02 0.000E+00 -1025.000
02A51          sand12.1245E+000.0000E+000.0000E+001.3525E-01 0.000E+00 -1025.000
02A52          sand13.5861E+000.0000E+000.0000E+001.9025E-01 0.000E+00 -1025.000
02A53          sand15.7962E+000.0000E+000.0000E+002.5625E-01 0.000E+00 -1025.000
02A54          sand19.1052E+000.0000E+000.0000E+003.3545E-01 0.000E+00 -1025.000
02A55          sand11.4022E+010.0000E+000.0000E+004.3049E-01 0.000E+00 -1025.000
02A56          sand12.1284E+010.0000E+000.0000E+005.4454E-01 0.000E+00 -1025.000
02A57          sand13.1960E+010.0000E+000.0000E+006.8140E-01 0.000E+00 -1025.000
02A58          sand14.7596E+010.0000E+000.0000E+008.4562E-01 0.000E+00 -1025.000
02A59          sand17.0425E+010.0000E+000.0000E+001.0427E+00 0.000E+00 -1025.000
02A60          sand11.0368E+020.0000E+000.0000E+001.2792E+00 0.000E+00 -1025.000
02A61          sand11.5201E+020.0000E+000.0000E+001.5630E+00 0.000E+00 -1025.000
02A62          sand12.2216E+020.0000E+000.0000E+001.9035E+00 0.000E+00 -1025.000
02A63          sand13.2383E+020.0000E+000.0000E+002.3122E+00 0.000E+00 -1025.000
02A64          sand14.7101E+020.0000E+000.0000E+002.8026E+00 0.000E+00 -1025.000
02A65          sand16.8389E+020.0000E+000.0000E+003.3910E+00 0.000E+00 -1025.000
02A66          sand19.9157E+020.0000E+000.0000E+004.0972E+00 0.000E+00 -1025.000
02A67          sand11.4360E+030.0000E+000.0000E+004.9446E+00 0.000E+00 -1025.000
02A68          sand12.0776E+030.0000E+000.0000E+005.9614E+00 0.000E+00 -1025.000
02A69          sand13.0034E+030.0000E+000.0000E+007.1817E+00 0.000E+00 -1025.000
02A70          sand14.3389E+030.0000E+000.0000E+008.6459E+00 0.000E+00 -1025.000
02A71          sand16.2648E+030.0000E+000.0000E+001.0403E+01 0.000E+00 -1025.000
02A72          sand19.0415E+030.0000E+000.0000E+00    12.512 0.000E+00 -1025.000
02A73          sand11.3044E+040.0000E+000.0000E+00    15.042 0.000E+00 -1025.000
02A74          sand11.8812E+040.0000E+000.0000E+00    18.078 0.000E+00 -1025.000
02A75          sand12.7125E+040.0000E+000.0000E+00    21.722 0.000E+00 -1025.000
02A76          sand13.9102E+040.0000E+000.0000E+00    26.094 0.000E+00 -1025.000
02A77          sand15.6357E+040.0000E+000.0000E+00    31.341 0.000E+00 -1025.000
02A78          sand18.1214E+040.0000E+000.0000E+00    37.637 0.000E+00 -1025.000
02A79          sand11.1702E+050.0000E+000.0000E+00    45.193 0.000E+00 -1025.000
02A80          sand11.6860E+050.0000E+000.0000E+00    54.259 0.000E+00 -1025.000
02A81          sand12.4288E+050.0000E+000.0000E+00    65.139 0.000E+00 -1025.000
02A82          sand13.4988E+050.0000E+000.0000E+00    78.194 0.000E+00 -1025.000
02A83          sand15.0397E+050.0000E+000.0000E+00    93.861 0.000E+00 -1025.000
02A84          sand17.0627E+050.0000E+000.0000E+00   112.407 0.000E+00 -1025.000
02A85          sand11.0134E+060.0000E+000.0000E+00   134.407 0.000E+00 -1025.000
02A86          sand11.4549E+060.0000E+000.0000E+00   160.807 0.000E+00 -1025.000
02A87          sand12.0899E+060.0000E+000.0000E+00   192.487 0.000E+00 -1025.000
02A88          sand13.0032E+060.0000E+000.0000E+00   230.503 0.000E+00 -1025.000
02A89          sand14.3171E+060.0000E+000.0000E+00   276.122 0.000E+00 -1025.000
02A90          sand16.2075E+060.0000E+000.0000E+00   330.865 0.000E+00 -1025.000
02A91          sand18.9280E+060.0000E+000.0000E+00   396.557 0.000E+00 -1025.000
02A92          sand11.2843E+070.0000E+000.0000E+00   475.387 0.000E+00 -1025.000
02A93          sand11.8479E+070.0000E+000.0000E+00   569.983 0.000E+00 -1025.000
02A94          sand12.6591E+070.0000E+000.0000E+00   683.498 0.000E+00 -1025.000
02A95          sand13.8268E+070.0000E+000.0000E+00   819.716 0.000E+00 -1025.000
02A96          sand14.5664E+520.0000E+000.0000E+00   969.017 0.000E+00 -1025.000
 
CONNE
1AA 1*bA 1                   32.5000E+011.0000E-153.8186E-02-1.000E+00                               0.000E+00 0.000E+00 0.000E+00
1BA 11AA 1                   32.5000E+012.5000E+013.8186E-02-1.000E+00                               0.000E+00 0.000E+00   -50.000
1CA 11BA 1                   32.5000E+012.5000E+013.8186E-02-1.000E+00                               0.000E+00 0.000E+00  -100.000
1DA 11CA 1                   32.5000E+012.5000E+013.8186E-02-1.000E+00                               0.000E+00 0.000E+00  -150.000
1EA 11DA 1                   32.5000E+012.5000E+013.8186E-02-1.000E+00                               0.000E+00 0.000E+00  -200.000
1FA 11EA 1                   32.5000E+012.5000E+013.8186E-02-1.000E+00                               0.000E+00 0.000E+00  -250.000
1GA 11FA 1                   32.5000E+012.5000E+013.8186E-02-1.000E+00                               0.000E+00 0.000E+00  -300.000
1HA 11GA 1                   32.5000E+012.5000E+013.8186E-02-1.000E+00                               0.000E+00 0.000E+00  -350.000
1IA 11HA 1                   32.5000E+012.5000E+013.8186E-02-1.000E+00                               0.000E+00 0.000E+00  -400.000
1JA 11IA 1                   32.5000E+012.5000E+013.8186E-02-1.000E+00                               0.000E+00 0.000E+00  -450.000
1KA 11JA 1                   32.5000E+012.5000E+013.8186E-02-1.000E+00                               0.000E+00 0.000E+00  -500.000
1LA 11KA 1                   32.5000E+012.5000E+013.8186E-02-1.000E+00                               0.000E+00 0.000E+00  -550.000
1MA 11LA 1                   32.5000E+012.5000E+013.8186E-02-1.000E+00                               0.000E+00 0.000E+00  -600.000
1NA 11MA 1                   32.5000E+012.5000E+013.8186E-02-1.000E+00                               0.000E+00 0.000E+00  -650.000
1OA 11NA 1                   32.5000E+012.5000E+013.8186E-02-1.000E+00                               0.000E+00 0.000E+00  -700.000
1PA 11OA 1                   32.5000E+012.5000E+013.8186E-02-1.000E+00                               0.000E+00 0.000E+00  -750.000
1QA 11PA 1                   32.5000E+012.5000E+013.8186E-02-1.000E+00                               0.000E+00 0.000E+00  -800.000
1RA 11QA 1                   32.5000E+012.5000E+013.8186E-02-1.000E+00                               0.000E+00 0.000E+00  -850.000
1SA 11RA 1                   32.5000E+012.5000E+013.8186E-02-1.000E+00                               0.000E+00 0.000E+00  -900.000
1TA 11SA 1                   32.5000E+012.5000E+013.8186E-02-1.000E+00                               0.000E+00 0.000E+00  -950.000
02A 11TA 1                   32.5000E+012.5000E+013.8186E-02-1.000E+000.6927212                      0.000E+00 0.000E+00 -1000.000
02A9602A95                   17.5000E+017.4301E+012.8086E+05 0.000E+00                                 894.017 0.000E+00 -1025.000
02A9502A94                   17.4301E+016.1917E+012.3418E+05 0.000E+00                                 745.415 0.000E+00 -1025.000
02A9402A93                   16.1917E+015.1598E+011.9528E+05 0.000E+00                                 621.580 0.000E+00 -1025.000
02A9302A92                   15.1598E+014.2998E+011.6286E+05 0.000E+00                                 518.385 0.000E+00 -1025.000
02A9202A91                   14.2998E+013.5832E+011.3584E+05 0.000E+00                                 432.389 0.000E+00 -1025.000
02A9102A90                   13.5832E+012.9860E+011.1333E+05 0.000E+00                                 360.725 0.000E+00 -1025.000
02A9002A89                   12.9860E+012.4883E+019.4564E+04 0.000E+00                                 301.005 0.000E+00 -1025.000
02A8902A88                   12.4883E+012.0736E+017.8929E+04 0.000E+00                                 251.239 0.000E+00 -1025.000
02A8802A87                   12.0736E+011.7280E+016.5900E+04 0.000E+00                                 209.767 0.000E+00 -1025.000
02A8702A86                   11.7280E+011.4400E+015.5043E+04 0.000E+00                                 175.207 0.000E+00 -1025.000
02A8602A85                   11.4400E+011.2000E+014.5995E+04 0.000E+00                                 146.407 0.000E+00 -1025.000
02A8502A84                   11.2000E+011.0000E+013.8455E+04 0.000E+00                                 122.407 0.000E+00 -1025.000
02A8402A83                   11.0000E+018.5455E+003.2172E+04 0.000E+00                                 102.407 0.000E+00 -1025.000
02A8302A82                   18.5455E+007.1213E+002.6803E+04 0.000E+00                                  85.316 0.000E+00 -1025.000
02A8202A81                   17.1213E+005.9344E+002.2328E+04 0.000E+00                                  71.073 0.000E+00 -1025.000
02A8102A80                   15.9344E+004.9453E+001.8600E+04 0.000E+00                                  59.204 0.000E+00 -1025.000
02A8002A79                   14.9453E+004.1211E+001.5492E+04 0.000E+00                                  49.314 0.000E+00 -1025.000
02A7902A78                   14.1211E+003.4343E+001.2903E+04 0.000E+00                                  41.071 0.000E+00 -1025.000
02A7802A77                   13.4343E+002.8619E+001.0745E+04 0.000E+00                                  34.203 0.000E+00 -1025.000
02A7702A76                   12.8619E+002.3849E+008.9470E+03 0.000E+00                                  28.479 0.000E+00 -1025.000
02A7602A75                   12.3849E+001.9874E+007.4485E+03 0.000E+00                                  23.709 0.000E+00 -1025.000
02A7502A74                   11.9874E+001.6562E+006.1998E+03 0.000E+00                                  19.734 0.000E+00 -1025.000
02A7402A73                   11.6562E+001.3802E+005.1592E+03 0.000E+00                                  16.422 0.000E+00 -1025.000
02A7302A72                   11.3802E+001.1501E+004.2920E+03 0.000E+00                                  13.662 0.000E+00 -1025.000
02A7202A71                   11.1501E+009.5844E-013.5693E+03 0.000E+00                                  11.362 0.000E+00 -1025.000
02A7102A70                   19.5844E-017.9870E-012.9671E+03 0.000E+00                              9.4446E+00 0.000E+00 -1025.000
02A7002A69                   17.9870E-016.6558E-012.4653E+03 0.000E+00                              7.8472E+00 0.000E+00 -1025.000
02A6902A68                   16.6558E-015.5465E-012.0471E+03 0.000E+00                              6.5161E+00 0.000E+00 -1025.000
02A6802A67                   15.5465E-014.6221E-011.6986E+03 0.000E+00                              5.4068E+00 0.000E+00 -1025.000
02A6702A66                   14.6221E-013.8518E-011.4082E+03 0.000E+00                              4.4824E+00 0.000E+00 -1025.000
02A6602A65                   13.8518E-013.2098E-011.1662E+03 0.000E+00                              3.7120E+00 0.000E+00 -1025.000
02A6502A64                   13.2098E-012.6748E-019.6448E+02 0.000E+00                              3.0700E+00 0.000E+00 -1025.000
02A6402A63                   12.6748E-012.2290E-017.9642E+02 0.000E+00                              2.5351E+00 0.000E+00 -1025.000
02A6302A62                   12.2290E-011.8575E-016.5637E+02 0.000E+00                              2.0893E+00 0.000E+00 -1025.000
02A6202A61                   11.8575E-011.5479E-015.3965E+02 0.000E+00                              1.7178E+00 0.000E+00 -1025.000
02A6102A60                   11.5479E-011.2899E-014.4239E+02 0.000E+00                              1.4082E+00 0.000E+00 -1025.000
02A6002A59                   11.2899E-011.0750E-013.6134E+02 0.000E+00                              1.1502E+00 0.000E+00 -1025.000
02A5902A58                   11.0750E-018.9580E-022.9380E+02 0.000E+00                              9.3520E-01 0.000E+00 -1025.000
02A5802A57                   18.9580E-027.4650E-022.3752E+02 0.000E+00                              7.5605E-01 0.000E+00 -1025.000
02A5702A56                   17.4650E-026.2208E-021.9061E+02 0.000E+00                              6.0675E-01 0.000E+00 -1025.000
02A5602A55                   16.2208E-025.1840E-021.5153E+02 0.000E+00                              4.8233E-01 0.000E+00 -1025.000
02A5502A54                   15.1840E-024.3200E-021.1896E+02 0.000E+00                              3.7865E-01 0.000E+00 -1025.000
02A5402A53                   14.3200E-023.6000E-029.1813E+01 0.000E+00                              2.9225E-01 0.000E+00 -1025.000
02A5302A52                   13.6000E-023.0000E-026.9194E+01 0.000E+00                              2.2025E-01 0.000E+00 -1025.000
02A5202A51                   13.0000E-022.5000E-025.0344E+01 0.000E+00                              1.6025E-01 0.000E+00 -1025.000
02A5102A50                   12.5000E-021.7533E-023.4636E+01 0.000E+00                              1.1025E-01 0.000E+00 -1025.000
02A5002A 1                   11.7533E-027.5185E-022.3620E+01 0.000E+00                              7.5185E-02 0.000E+00 -1025.000
 
INCON -- INITIAL CONDITIONS FOR   22 ELEMENTS AT TIME  0.379208E+09
*bA 1           0.10000000E+01 3
 2.5000000000000E+06 0.0000000000000E+00 0.1000000000000E+01 0.5000000000000E+01
1AA 1           0.10000000E+01 3
 0.4163258649738E+06 0.0000000000000E+00 0.1000000000000E+01 0.5625000000000E+01
1BA 1           0.10000000E+01 3
 0.4203214928741E+06 0.0000000000000E+00 0.1000000000000E+01 0.6875000000000E+01
1CA 1           0.10000000E+01 3
 0.4243370159716E+06 0.0000000000000E+00 0.1000000000000E+01 0.8125000000000E+01
1DA 1           0.10000000E+01 3
 0.4283724258095E+06 0.0000000000000E+00 0.1000000000000E+01 0.9375000000000E+01
1EA 1           0.10000000E+01 3
 0.4324277032934E+06 0.0000000000000E+00 0.1000000000000E+01 0.1062500000000E+02
1FA 1           0.10000000E+01 3
 0.4365028171351E+06 0.0000000000000E+00 0.1000000000000E+01 0.1187500000000E+02
1GA 1           0.10000000E+01 3
 0.4405977493075E+06 0.0000000000000E+00 0.1000000000000E+01 0.1312500000000E+02
1HA 1           0.10000000E+01 3
 0.4447124928646E+06 0.0000000000000E+00 0.1000000000000E+01 0.1437500000000E+02
1IA 1           0.10000000E+01 3
 0.4488470331724E+06 0.0000000000000E+00 0.1000000000000E+01 0.1562500000000E+02
1JA 1           0.10000000E+01 3
 0.4530013451899E+06 0.0000000000000E+00 0.1000000000000E+01 0.1687500000000E+02
1KA 1           0.10000000E+01 3
 0.4571754154631E+06 0.0000000000000E+00 0.1000000000000E+01 0.1812500000000E+02
1LA 1           0.10000000E+01 3
 0.4613692333538E+06 0.0000000000000E+00 0.1000000000000E+01 0.1937500000000E+02
1MA 1           0.10000000E+01 3
 0.4655827822199E+06 0.0000000000000E+00 0.1000000000000E+01 0.2062500000000E+02
1NA 1           0.10000000E+01 3
 0.4698160452580E+06 0.0000000000000E+00 0.1000000000000E+01 0.2187500000000E+02
1OA 1           0.10000000E+01 3
 0.4740690082739E+06 0.0000000000000E+00 0.1000000000000E+01 0.2312500000000E+02
1PA 1           0.10000000E+01 3
 0.4783416726772E+06 0.0000000000000E+00 0.1000000000000E+01 0.2437500000000E+02
1QA 1           0.10000000E+01 3
 0.4826340228034E+06 0.0000000000000E+00 0.1000000000000E+01 0.2562500000000E+02
1RA 1           0.10000000E+01 3
 0.4869460371439E+06 0.0000000000000E+00 0.1000000000000E+01 0.2687500000000E+02
1SA 1           0.10000000E+01 3
 0.4912777052904E+06 0.0000000000000E+00 0.1000000000000E+01 0.2812500000000E+02
1TA 1           0.10000000E+01 3
 0.4956290284720E+06 0.0000000000000E+00 0.1000000000000E+01 0.2937500000000E+02
02A 1           0.10000000E+01 3
 0.5000000000000E+06 0.0000000000000E+00 0.1000000000000E+01 0.3062500000000E+02




ENDCY----1----*----2----*----3----*----4----*----5----*----6----*----7----*----8
xESHMAKER1----*----2----*----3----*----4----*----5----*----6----*----7----*----8
XYZ
      0.00
NX       1        1.
NY       3       0.1
NZ      12        1.
