*wellbore DFM* ... 1-D column to 1000 m depth, 10 m vertical grid spacing,0.1 dia
ROCKS----1----*----2----*----3----*----4----*----5----*----6----*----7----*----8
wellb    2  2600.e00    1.0000  200.0e-9  200.0e-9  200.0e-9     -2.51     920.
   0.0e-10                         
    7           .457       .05        1.       .05
    8
wtmos    2  2600.e3     1.0000  200.0e-9  200.0e-9  200.0e-9      2.51   920.e-3
   0.0e-10
    7           .457       .05        1.       .05
    8
botwe    2  2600.e00    0.5000   2.0e-12   2.0e-12   2.0e-12      2.51     920.
   0.0e-10
    7           .457       .01        1.       .01
    8
     
MULTI----1----*----2----*----3----*----4----*----5----*----6----*----7----*----8
    3    4    3    6
SELEC....2....3....4....5....6....7....8....9...10...11...12...13...14...15...16
    1                                       0    0    0    0    0    0    0    0
        .8        .1       1.2      1.53       0.1  0.046e-3
SOLVR----1----*----2----*----3----*----4----*----5----*----6----*----7----*----8
5  Z1   O0    8.0e-1    1.0e-7
START----1----*----2----*----3----*----4----*----5----*----6----*----7----*----8
----*----1 MOP: 123456789*123456789*1234 ---*----5----*----6----*----7----*----8
PARAM----1----*----2----*----3----*----4----*----5----*----6----*----7----*----8
   28100     1001000300000200  4    3
           3.6e+4       2.e-0    2.0e+1                9.81       2.0
     1.E-4     1.E00                                        
             1.013e5                 0.0                 1.0                 15.
GENER----1----*----2----*----3----*----4----*----5----*----6----*----7----*----8

FOFT ----1----*----2----*----3----*----4----*----5----*----6----*----7----*----8
1Aa 1          wellb7.8500E-020.0000E+00          4.0991E-024.0320E-02   997.000
1Za 1          wellb7.8500E-020.0000E+00          4.0991E-024.0320E-02   747.000
1sa 1          wellb7.8500E-020.0000E+00          4.0991E-024.0320E-02   497.000
AOa 1          wellb7.8500E-020.0000E+00          4.0991E-024.0320E-02   247.000
2Da 1          wellb7.8500E-020.0000E+00          4.0991E-024.0320E-027.0000E+00

COFT ----1----*----2----*----3----*----4----*----5----*----6----*----7----*----8
1Aa 1*ta 1                   35.0000E+001.0000E-157.8500E-03-1.000E+00          
1sa 11ra 1                   35.0000E+005.0000E+007.8500E-03-1.000E+00
2Da 12Ca 1                   31.0000E-155.0000E+007.8500E-03-1.000E+00          

START     

ELEME ---
*ta 1          wtmos1.0000E+50                    4.0991E-024.0320E-02  1002.000
1Aa 1          wellb7.8500E-020.0000E+00          4.0991E-024.0320E-02   997.000
1Ba 1          wellb7.8500E-020.0000E+00          4.0991E-024.0320E-02   987.000
1Ca 1          wellb7.8500E-020.0000E+00          4.0991E-024.0320E-02   977.000
1Da 1          wellb7.8500E-020.0000E+00          4.0991E-024.0320E-02   967.000
1Ea 1          wellb7.8500E-020.0000E+00          4.0991E-024.0320E-02   957.000
1Fa 1          wellb7.8500E-020.0000E+00          4.0991E-024.0320E-02   947.000
1Ga 1          wellb7.8500E-020.0000E+00          4.0991E-024.0320E-02   937.000
1Ha 1          wellb7.8500E-020.0000E+00          4.0991E-024.0320E-02   927.000
1Ia 1          wellb7.8500E-020.0000E+00          4.0991E-024.0320E-02   917.000
1Ja 1          wellb7.8500E-020.0000E+00          4.0991E-024.0320E-02   907.000
1Ka 1          wellb7.8500E-020.0000E+00          4.0991E-024.0320E-02   897.000
1La 1          wellb7.8500E-020.0000E+00          4.0991E-024.0320E-02   887.000
1Ma 1          wellb7.8500E-020.0000E+00          4.0991E-024.0320E-02   877.000
1Na 1          wellb7.8500E-020.0000E+00          4.0991E-024.0320E-02   867.000
1Oa 1          wellb7.8500E-020.0000E+00          4.0991E-024.0320E-02   857.000
1Pa 1          wellb7.8500E-020.0000E+00          4.0991E-024.0320E-02   847.000
1Qa 1          wellb7.8500E-020.0000E+00          4.0991E-024.0320E-02   837.000
1Ra 1          wellb7.8500E-020.0000E+00          4.0991E-024.0320E-02   827.000
1Sa 1          wellb7.8500E-020.0000E+00          4.0991E-024.0320E-02   817.000
1Ta 1          wellb7.8500E-020.0000E+00          4.0991E-024.0320E-02   807.000
1Ua 1          wellb7.8500E-020.0000E+00          4.0991E-024.0320E-02   797.000
1Va 1          wellb7.8500E-020.0000E+00          4.0991E-024.0320E-02   787.000
1Wa 1          wellb7.8500E-020.0000E+00          4.0991E-024.0320E-02   777.000
1Xa 1          wellb7.8500E-020.0000E+00          4.0991E-024.0320E-02   767.000
1Ya 1          wellb7.8500E-020.0000E+00          4.0991E-024.0320E-02   757.000
1Za 1          wellb7.8500E-020.0000E+00          4.0991E-024.0320E-02   747.000
1[a 1          wellb7.8500E-020.0000E+00          4.0991E-024.0320E-02   737.000
1\a 1          wellb7.8500E-020.0000E+00          4.0991E-024.0320E-02   727.000
1]a 1          wellb7.8500E-020.0000E+00          4.0991E-024.0320E-02   717.000
1^a 1          wellb7.8500E-020.0000E+00          4.0991E-024.0320E-02   707.000
1_a 1          wellb7.8500E-020.0000E+00          4.0991E-024.0320E-02   697.000
1`a 1          wellb7.8500E-020.0000E+00          4.0991E-024.0320E-02   687.000
1aa 1          wellb7.8500E-020.0000E+00          4.0991E-024.0320E-02   677.000
1ba 1          wellb7.8500E-020.0000E+00          4.0991E-024.0320E-02   667.000
1ca 1          wellb7.8500E-020.0000E+00          4.0991E-024.0320E-02   657.000
1da 1          wellb7.8500E-020.0000E+00          4.0991E-024.0320E-02   647.000
1ea 1          wellb7.8500E-020.0000E+00          4.0991E-024.0320E-02   637.000
1fa 1          wellb7.8500E-020.0000E+00          4.0991E-024.0320E-02   627.000
1ga 1          wellb7.8500E-020.0000E+00          4.0991E-024.0320E-02   617.000
1ha 1          wellb7.8500E-020.0000E+00          4.0991E-024.0320E-02   607.000
1ia 1          wellb7.8500E-020.0000E+00          4.0991E-024.0320E-02   597.000
1ja 1          wellb7.8500E-020.0000E+00          4.0991E-024.0320E-02   587.000
1ka 1          wellb7.8500E-020.0000E+00          4.0991E-024.0320E-02   577.000
1la 1          wellb7.8500E-020.0000E+00          4.0991E-024.0320E-02   567.000
1ma 1          wellb7.8500E-020.0000E+00          4.0991E-024.0320E-02   557.000
1na 1          wellb7.8500E-020.0000E+00          4.0991E-024.0320E-02   547.000
1oa 1          wellb7.8500E-020.0000E+00          4.0991E-024.0320E-02   537.000
1pa 1          wellb7.8500E-020.0000E+00          4.0991E-024.0320E-02   527.000
1qa 1          wellb7.8500E-020.0000E+00          4.0991E-024.0320E-02   517.000
1ra 1          wellb7.8500E-020.0000E+00          4.0991E-024.0320E-02   507.000
1sa 1          wellb7.8500E-020.0000E+00          4.0991E-024.0320E-02   497.000
1ta 1          wellb7.8500E-020.0000E+00          4.0991E-024.0320E-02   487.000
1ua 1          wellb7.8500E-020.0000E+00          4.0991E-024.0320E-02   477.000
1va 1          wellb7.8500E-020.0000E+00          4.0991E-024.0320E-02   467.000
1wa 1          wellb7.8500E-020.0000E+00          4.0991E-024.0320E-02   457.000
1xa 1          wellb7.8500E-020.0000E+00          4.0991E-024.0320E-02   447.000
1ya 1          wellb7.8500E-020.0000E+00          4.0991E-024.0320E-02   437.000
1za 1          wellb7.8500E-020.0000E+00          4.0991E-024.0320E-02   427.000
1{a 1          wellb7.8500E-020.0000E+00          4.0991E-024.0320E-02   417.000
1|a 1          wellb7.8500E-020.0000E+00          4.0991E-024.0320E-02   407.000
1}a 1          wellb7.8500E-020.0000E+00          4.0991E-024.0320E-02   397.000
AAa 1          wellb7.8500E-020.0000E+00          4.0991E-024.0320E-02   387.000
ABa 1          wellb7.8500E-020.0000E+00          4.0991E-024.0320E-02   377.000
ACa 1          wellb7.8500E-020.0000E+00          4.0991E-024.0320E-02   367.000
ADa 1          wellb7.8500E-020.0000E+00          4.0991E-024.0320E-02   357.000
AEa 1          wellb7.8500E-020.0000E+00          4.0991E-024.0320E-02   347.000
AFa 1          wellb7.8500E-020.0000E+00          4.0991E-024.0320E-02   337.000
AGa 1          wellb7.8500E-020.0000E+00          4.0991E-024.0320E-02   327.000
AHa 1          wellb7.8500E-020.0000E+00          4.0991E-024.0320E-02   317.000
AIa 1          wellb7.8500E-020.0000E+00          4.0991E-024.0320E-02   307.000
AJa 1          wellb7.8500E-020.0000E+00          4.0991E-024.0320E-02   297.000
AKa 1          wellb7.8500E-020.0000E+00          4.0991E-024.0320E-02   287.000
ALa 1          wellb7.8500E-020.0000E+00          4.0991E-024.0320E-02   277.000
AMa 1          wellb7.8500E-020.0000E+00          4.0991E-024.0320E-02   267.000
ANa 1          wellb7.8500E-020.0000E+00          4.0991E-024.0320E-02   257.000
AOa 1          wellb7.8500E-020.0000E+00          4.0991E-024.0320E-02   247.000
APa 1          wellb7.8500E-020.0000E+00          4.0991E-024.0320E-02   237.000
AQa 1          wellb7.8500E-020.0000E+00          4.0991E-024.0320E-02   227.000
ARa 1          wellb7.8500E-020.0000E+00          4.0991E-024.0320E-02   217.000
ASa 1          wellb7.8500E-020.0000E+00          4.0991E-024.0320E-02   207.000
ATa 1          wellb7.8500E-020.0000E+00          4.0991E-024.0320E-02   197.000
AUa 1          wellb7.8500E-020.0000E+00          4.0991E-024.0320E-02   187.000
AVa 1          wellb7.8500E-020.0000E+00          4.0991E-024.0320E-02   177.000
AWa 1          wellb7.8500E-020.0000E+00          4.0991E-024.0320E-02   167.000
AXa 1          wellb7.8500E-020.0000E+00          4.0991E-024.0320E-02   157.000
AYa 1          wellb7.8500E-020.0000E+00          4.0991E-024.0320E-02   147.000
AZa 1          wellb7.8500E-020.0000E+00          4.0991E-024.0320E-02   137.000
A[a 1          wellb7.8500E-020.0000E+00          4.0991E-024.0320E-02   127.000
A\a 1          wellb7.8500E-020.0000E+00          4.0991E-024.0320E-02   117.000
A]a 1          wellb7.8500E-020.0000E+00          4.0991E-024.0320E-02   107.000
A^a 1          wellb7.8500E-020.0000E+00          4.0991E-024.0320E-02    97.000
A_a 1          wellb7.8500E-020.0000E+00          4.0991E-024.0320E-02    87.000
A`a 1          wellb7.8500E-020.0000E+00          4.0991E-024.0320E-02    77.000
Aaa 1          wellb7.8500E-020.0000E+00          4.0991E-024.0320E-02    67.000
Aba 1          wellb7.8500E-020.0000E+00          4.0991E-024.0320E-02    57.000
02a 1          wellb7.8500E-020.0000E+00          4.0991E-024.0320E-02    47.000
2Aa 1          wellb7.8500E-020.0000E+00          4.0991E-024.0320E-02    37.000
2Ba 1          wellb7.8500E-020.0000E+00          4.0991E-024.0320E-02    27.000
2Ca 1          wellb7.8500E-020.0000E+00          4.0991E-024.0320E-02    17.000
2Da 1          wellb7.8500E-020.0000E+00          4.0991E-024.0320E-027.0000E+00
bba 1          wellb7.8500E+520.0000E+00          4.0991E-024.0320E-022.0000E+00
 
CONNE
1Aa 1*ta 1                   35.0000E+000.0000E-007.8500E-03-1.000E+00                              4.0991E-024.0320E-02  1002.000
1Ba 11Aa 1                   35.0000E+005.0000E+007.8500E-03-1.000E+00                              4.0991E-024.0320E-02   992.000
1Ca 11Ba 1                   35.0000E+005.0000E+007.8500E-03-1.000E+00                              4.0991E-024.0320E-02   982.000
1Da 11Ca 1                   35.0000E+005.0000E+007.8500E-03-1.000E+00                              4.0991E-024.0320E-02   972.000
1Ea 11Da 1                   35.0000E+005.0000E+007.8500E-03-1.000E+00                              4.0991E-024.0320E-02   962.000
1Fa 11Ea 1                   35.0000E+005.0000E+007.8500E-03-1.000E+00                              4.0991E-024.0320E-02   952.000
1Ga 11Fa 1                   35.0000E+005.0000E+007.8500E-03-1.000E+00                              4.0991E-024.0320E-02   942.000
1Ha 11Ga 1                   35.0000E+005.0000E+007.8500E-03-1.000E+00                              4.0991E-024.0320E-02   932.000
1Ia 11Ha 1                   35.0000E+005.0000E+007.8500E-03-1.000E+00                              4.0991E-024.0320E-02   922.000
1Ja 11Ia 1                   35.0000E+005.0000E+007.8500E-03-1.000E+00                              4.0991E-024.0320E-02   912.000
1Ka 11Ja 1                   35.0000E+005.0000E+007.8500E-03-1.000E+00                              4.0991E-024.0320E-02   902.000
1La 11Ka 1                   35.0000E+005.0000E+007.8500E-03-1.000E+00                              4.0991E-024.0320E-02   892.000
1Ma 11La 1                   35.0000E+005.0000E+007.8500E-03-1.000E+00                              4.0991E-024.0320E-02   882.000
1Na 11Ma 1                   35.0000E+005.0000E+007.8500E-03-1.000E+00                              4.0991E-024.0320E-02   872.000
1Oa 11Na 1                   35.0000E+005.0000E+007.8500E-03-1.000E+00                              4.0991E-024.0320E-02   862.000
1Pa 11Oa 1                   35.0000E+005.0000E+007.8500E-03-1.000E+00                              4.0991E-024.0320E-02   852.000
1Qa 11Pa 1                   35.0000E+005.0000E+007.8500E-03-1.000E+00                              4.0991E-024.0320E-02   842.000
1Ra 11Qa 1                   35.0000E+005.0000E+007.8500E-03-1.000E+00                              4.0991E-024.0320E-02   832.000
1Sa 11Ra 1                   35.0000E+005.0000E+007.8500E-03-1.000E+00                              4.0991E-024.0320E-02   822.000
1Ta 11Sa 1                   35.0000E+005.0000E+007.8500E-03-1.000E+00                              4.0991E-024.0320E-02   812.000
1Ua 11Ta 1                   35.0000E+005.0000E+007.8500E-03-1.000E+00                              4.0991E-024.0320E-02   802.000
1Va 11Ua 1                   35.0000E+005.0000E+007.8500E-03-1.000E+00                              4.0991E-024.0320E-02   792.000
1Wa 11Va 1                   35.0000E+005.0000E+007.8500E-03-1.000E+00                              4.0991E-024.0320E-02   782.000
1Xa 11Wa 1                   35.0000E+005.0000E+007.8500E-03-1.000E+00                              4.0991E-024.0320E-02   772.000
1Ya 11Xa 1                   35.0000E+005.0000E+007.8500E-03-1.000E+00                              4.0991E-024.0320E-02   762.000
1Za 11Ya 1                   35.0000E+005.0000E+007.8500E-03-1.000E+00                              4.0991E-024.0320E-02   752.000
1[a 11Za 1                   35.0000E+005.0000E+007.8500E-03-1.000E+00                              4.0991E-024.0320E-02   742.000
1\a 11[a 1                   35.0000E+005.0000E+007.8500E-03-1.000E+00                              4.0991E-024.0320E-02   732.000
1]a 11\a 1                   35.0000E+005.0000E+007.8500E-03-1.000E+00                              4.0991E-024.0320E-02   722.000
1^a 11]a 1                   35.0000E+005.0000E+007.8500E-03-1.000E+00                              4.0991E-024.0320E-02   712.000
1_a 11^a 1                   35.0000E+005.0000E+007.8500E-03-1.000E+00                              4.0991E-024.0320E-02   702.000
1`a 11_a 1                   35.0000E+005.0000E+007.8500E-03-1.000E+00                              4.0991E-024.0320E-02   692.000
1aa 11`a 1                   35.0000E+005.0000E+007.8500E-03-1.000E+00                              4.0991E-024.0320E-02   682.000
1ba 11aa 1                   35.0000E+005.0000E+007.8500E-03-1.000E+00                              4.0991E-024.0320E-02   672.000
1ca 11ba 1                   35.0000E+005.0000E+007.8500E-03-1.000E+00                              4.0991E-024.0320E-02   662.000
1da 11ca 1                   35.0000E+005.0000E+007.8500E-03-1.000E+00                              4.0991E-024.0320E-02   652.000
1ea 11da 1                   35.0000E+005.0000E+007.8500E-03-1.000E+00                              4.0991E-024.0320E-02   642.000
1fa 11ea 1                   35.0000E+005.0000E+007.8500E-03-1.000E+00                              4.0991E-024.0320E-02   632.000
1ga 11fa 1                   35.0000E+005.0000E+007.8500E-03-1.000E+00                              4.0991E-024.0320E-02   622.000
1ha 11ga 1                   35.0000E+005.0000E+007.8500E-03-1.000E+00                              4.0991E-024.0320E-02   612.000
1ia 11ha 1                   35.0000E+005.0000E+007.8500E-03-1.000E+00                              4.0991E-024.0320E-02   602.000
1ja 11ia 1                   35.0000E+005.0000E+007.8500E-03-1.000E+00                              4.0991E-024.0320E-02   592.000
1ka 11ja 1                   35.0000E+005.0000E+007.8500E-03-1.000E+00                              4.0991E-024.0320E-02   582.000
1la 11ka 1                   35.0000E+005.0000E+007.8500E-03-1.000E+00                              4.0991E-024.0320E-02   572.000
1ma 11la 1                   35.0000E+005.0000E+007.8500E-03-1.000E+00                              4.0991E-024.0320E-02   562.000
1na 11ma 1                   35.0000E+005.0000E+007.8500E-03-1.000E+00                              4.0991E-024.0320E-02   552.000
1oa 11na 1                   35.0000E+005.0000E+007.8500E-03-1.000E+00                              4.0991E-024.0320E-02   542.000
1pa 11oa 1                   35.0000E+005.0000E+007.8500E-03-1.000E+00                              4.0991E-024.0320E-02   532.000
1qa 11pa 1                   35.0000E+005.0000E+007.8500E-03-1.000E+00                              4.0991E-024.0320E-02   522.000
1ra 11qa 1                   35.0000E+005.0000E+007.8500E-03-1.000E+00                              4.0991E-024.0320E-02   512.000
1sa 11ra 1                   35.0000E+005.0000E+007.8500E-03-1.000E+00                              4.0991E-024.0320E-02   502.000
1ta 11sa 1                   35.0000E+005.0000E+007.8500E-03-1.000E+00                              4.0991E-024.0320E-02   492.000
1ua 11ta 1                   35.0000E+005.0000E+007.8500E-03-1.000E+00                              4.0991E-024.0320E-02   482.000
1va 11ua 1                   35.0000E+005.0000E+007.8500E-03-1.000E+00                              4.0991E-024.0320E-02   472.000
1wa 11va 1                   35.0000E+005.0000E+007.8500E-03-1.000E+00                              4.0991E-024.0320E-02   462.000
1xa 11wa 1                   35.0000E+005.0000E+007.8500E-03-1.000E+00                              4.0991E-024.0320E-02   452.000
1ya 11xa 1                   35.0000E+005.0000E+007.8500E-03-1.000E+00                              4.0991E-024.0320E-02   442.000
1za 11ya 1                   35.0000E+005.0000E+007.8500E-03-1.000E+00                              4.0991E-024.0320E-02   432.000
1{a 11za 1                   35.0000E+005.0000E+007.8500E-03-1.000E+00                              4.0991E-024.0320E-02   422.000
1|a 11{a 1                   35.0000E+005.0000E+007.8500E-03-1.000E+00                              4.0991E-024.0320E-02   412.000
1}a 11|a 1                   35.0000E+005.0000E+007.8500E-03-1.000E+00                              4.0991E-024.0320E-02   402.000
AAa 11}a 1                   35.0000E+005.0000E+007.8500E-03-1.000E+00                              4.0991E-024.0320E-02   392.000
ABa 1AAa 1                   35.0000E+005.0000E+007.8500E-03-1.000E+00                              4.0991E-024.0320E-02   382.000
ACa 1ABa 1                   35.0000E+005.0000E+007.8500E-03-1.000E+00                              4.0991E-024.0320E-02   372.000
ADa 1ACa 1                   35.0000E+005.0000E+007.8500E-03-1.000E+00                              4.0991E-024.0320E-02   362.000
AEa 1ADa 1                   35.0000E+005.0000E+007.8500E-03-1.000E+00                              4.0991E-024.0320E-02   352.000
AFa 1AEa 1                   35.0000E+005.0000E+007.8500E-03-1.000E+00                              4.0991E-024.0320E-02   342.000
AGa 1AFa 1                   35.0000E+005.0000E+007.8500E-03-1.000E+00                              4.0991E-024.0320E-02   332.000
AHa 1AGa 1                   35.0000E+005.0000E+007.8500E-03-1.000E+00                              4.0991E-024.0320E-02   322.000
AIa 1AHa 1                   35.0000E+005.0000E+007.8500E-03-1.000E+00                              4.0991E-024.0320E-02   312.000
AJa 1AIa 1                   35.0000E+005.0000E+007.8500E-03-1.000E+00                              4.0991E-024.0320E-02   302.000
AKa 1AJa 1                   35.0000E+005.0000E+007.8500E-03-1.000E+00                              4.0991E-024.0320E-02   292.000
ALa 1AKa 1                   35.0000E+005.0000E+007.8500E-03-1.000E+00                              4.0991E-024.0320E-02   282.000
AMa 1ALa 1                   35.0000E+005.0000E+007.8500E-03-1.000E+00                              4.0991E-024.0320E-02   272.000
ANa 1AMa 1                   35.0000E+005.0000E+007.8500E-03-1.000E+00                              4.0991E-024.0320E-02   262.000
AOa 1ANa 1                   35.0000E+005.0000E+007.8500E-03-1.000E+00                              4.0991E-024.0320E-02   252.000
APa 1AOa 1                   35.0000E+005.0000E+007.8500E-03-1.000E+00                              4.0991E-024.0320E-02   242.000
AQa 1APa 1                   35.0000E+005.0000E+007.8500E-03-1.000E+00                              4.0991E-024.0320E-02   232.000
ARa 1AQa 1                   35.0000E+005.0000E+007.8500E-03-1.000E+00                              4.0991E-024.0320E-02   222.000
ASa 1ARa 1                   35.0000E+005.0000E+007.8500E-03-1.000E+00                              4.0991E-024.0320E-02   212.000
ATa 1ASa 1                   35.0000E+005.0000E+007.8500E-03-1.000E+00                              4.0991E-024.0320E-02   202.000
AUa 1ATa 1                   35.0000E+005.0000E+007.8500E-03-1.000E+00                              4.0991E-024.0320E-02   192.000
AVa 1AUa 1                   35.0000E+005.0000E+007.8500E-03-1.000E+00                              4.0991E-024.0320E-02   182.000
AWa 1AVa 1                   35.0000E+005.0000E+007.8500E-03-1.000E+00                              4.0991E-024.0320E-02   172.000
AXa 1AWa 1                   35.0000E+005.0000E+007.8500E-03-1.000E+00                              4.0991E-024.0320E-02   162.000
AYa 1AXa 1                   35.0000E+005.0000E+007.8500E-03-1.000E+00                              4.0991E-024.0320E-02   152.000
AZa 1AYa 1                   35.0000E+005.0000E+007.8500E-03-1.000E+00                              4.0991E-024.0320E-02   142.000
A[a 1AZa 1                   35.0000E+005.0000E+007.8500E-03-1.000E+00                              4.0991E-024.0320E-02   132.000
A\a 1A[a 1                   35.0000E+005.0000E+007.8500E-03-1.000E+00                              4.0991E-024.0320E-02   122.000
A]a 1A\a 1                   35.0000E+005.0000E+007.8500E-03-1.000E+00                              4.0991E-024.0320E-02   112.000
A^a 1A]a 1                   35.0000E+005.0000E+007.8500E-03-1.000E+00                              4.0991E-024.0320E-02   102.000
A_a 1A^a 1                   35.0000E+005.0000E+007.8500E-03-1.000E+00                              4.0991E-024.0320E-02    92.000
A`a 1A_a 1                   35.0000E+005.0000E+007.8500E-03-1.000E+00                              4.0991E-024.0320E-02    82.000
Aaa 1A`a 1                   35.0000E+005.0000E+007.8500E-03-1.000E+00                              4.0991E-024.0320E-02    72.000
Aba 1Aaa 1                   35.0000E+005.0000E+007.8500E-03-1.000E+00                              4.0991E-024.0320E-02    62.000
02a 1Aba 1                   35.0000E+005.0000E+007.8500E-03-1.000E+00                              4.0991E-024.0320E-02    52.000
2Aa 102a 1                   35.0000E+005.0000E+007.8500E-03-1.000E+00                              4.0991E-024.0320E-02    42.000
2Ba 12Aa 1                   35.0000E+005.0000E+007.8500E-03-1.000E+00                              4.0991E-024.0320E-02    32.000
2Ca 12Ba 1                   35.0000E+005.0000E+007.8500E-03-1.000E+00                              4.0991E-024.0320E-02    22.000
2Da 12Ca 1                   35.0000E+005.0000E+007.8500E-03-1.000E+00                              4.0991E-024.0320E-02    12.000
bba 12Da 1                   30.0000E-025.0000E+007.8500E-03-1.000E+00                              4.0991E-024.0320E-022.0000E+00

INCON -- INITIAL CONDITIONS FOR  102 ELEMENTS AT TIME  0.256091E+11
1Aa 1           0.10000000E+01
 0.1503360227508E+06 0.0000000000000E+00 0.0000000000000E+00 0.3515010281838E+02
1Ba 1           0.10000000E+01
 0.2483565254558E+06 0.0000000000000E+00 0.0000000000000E+00 0.3545030836921E+02
1Ca 1           0.10000000E+01
 0.3463757960679E+06 0.0000000000000E+00 0.0000000000000E+00 0.3575051364273E+02
1Da 1           0.10000000E+01
 0.4443937338363E+06 0.0000000000000E+00 0.0000000000000E+00 0.3605071842834E+02
1Ea 1           0.10000000E+01
 0.5424102388552E+06 0.0000000000000E+00 0.0000000000000E+00 0.3635092251603E+02
1Fa 1           0.10000000E+01
 0.6404252120524E+06 0.0000000000000E+00 0.0000000000000E+00 0.3665112569668E+02
1Ga 1           0.10000000E+01
 0.7384385551772E+06 0.0000000000000E+00 0.0000000000000E+00 0.3695132776217E+02
1Ha 1           0.10000000E+01
 0.8364501707889E+06 0.0000000000000E+00 0.0000000000000E+00 0.3725152850575E+02
1Ia 1           0.10000000E+01
 0.9344599622450E+06 0.0000000000000E+00 0.0000000000000E+00 0.3755172772213E+02
1Ja 1           0.10000000E+01
 0.1032467833690E+07 0.0000000000000E+00 0.0000000000000E+00 0.3785192520776E+02
1Ka 1           0.10000000E+01
 0.1130473690046E+07 0.0000000000000E+00 0.0000000000000E+00 0.3815212076108E+02
1La 1           0.10000000E+01
 0.1228477436998E+07 0.0000000000000E+00 0.0000000000000E+00 0.3845231418278E+02
1Ma 1           0.10000000E+01
 0.1326478980987E+07 0.0000000000000E+00 0.0000000000000E+00 0.3875250527582E+02
1Na 1           0.10000000E+01
 0.1424478229197E+07 0.0000000000000E+00 0.0000000000000E+00 0.3905269384594E+02
1Oa 1           0.10000000E+01
 0.1522475089547E+07 0.0000000000000E+00 0.0000000000000E+00 0.3935287970139E+02
1Pa 1           0.10000000E+01
 0.1620469470677E+07 0.0000000000000E+00 0.0000000000000E+00 0.3965306265386E+02
1Qa 1           0.10000000E+01
 0.1718461281942E+07 0.0000000000000E+00 0.0000000000000E+00 0.3995324251793E+02
1Ra 1           0.10000000E+01
 0.1816450433401E+07 0.0000000000000E+00 0.0000000000000E+00 0.4025341911173E+02
1Sa 1           0.10000000E+01
 0.1914436835805E+07 0.0000000000000E+00 0.0000000000000E+00 0.4055359225703E+02
1Ta 1           0.10000000E+01
 0.2012420400588E+07 0.0000000000000E+00 0.0000000000000E+00 0.4085376177945E+02
1Ua 1           0.10000000E+01
 0.2110401039863E+07 0.0000000000000E+00 0.0000000000000E+00 0.4115392750866E+02
1Va 1           0.10000000E+01
 0.2208378666403E+07 0.0000000000000E+00 0.0000000000000E+00 0.4145408927803E+02
1Wa 1           0.10000000E+01
 0.2306353193640E+07 0.0000000000000E+00 0.0000000000000E+00 0.4175424693032E+02
1Xa 1           0.10000000E+01
 0.2404324535653E+07 0.0000000000000E+00 0.0000000000000E+00 0.4205440030178E+02
1Ya 1           0.10000000E+01
 0.2502292607159E+07 0.0000000000000E+00 0.0000000000000E+00 0.4235454923711E+02
1Za 1           0.10000000E+01
 0.2600257323504E+07 0.0000000000000E+00 0.0000000000000E+00 0.4265469359942E+02
1[a 1           0.10000000E+01
 0.2698218600655E+07 0.0000000000000E+00 0.0000000000000E+00 0.4295483323472E+02
1\a 1           0.10000000E+01
 0.2796176355191E+07 0.0000000000000E+00 0.0000000000000E+00 0.4325496800776E+02
1]a 1           0.10000000E+01
 0.2894130504297E+07 0.0000000000000E+00 0.0000000000000E+00 0.4355509778595E+02
1^a 1           0.10000000E+01
 0.2992080965751E+07 0.0000000000000E+00 0.0000000000000E+00 0.4385522245221E+02
1_a 1           0.10000000E+01
 0.3090027657921E+07 0.0000000000000E+00 0.0000000000000E+00 0.4415534186682E+02
1`a 1           0.10000000E+01
 0.3187970499752E+07 0.0000000000000E+00 0.0000000000000E+00 0.4445545592372E+02
1aa 1           0.10000000E+01
 0.3285909410764E+07 0.0000000000000E+00 0.0000000000000E+00 0.4475556451383E+02
1ba 1           0.10000000E+01
 0.3383844311039E+07 0.0000000000000E+00 0.0000000000000E+00 0.4505566752412E+02
1ca 1           0.10000000E+01
 0.3481775121216E+07 0.0000000000000E+00 0.0000000000000E+00 0.4535576485834E+02
1da 1           0.10000000E+01
 0.3579701762482E+07 0.0000000000000E+00 0.0000000000000E+00 0.4565585643175E+02
1ea 1           0.10000000E+01
 0.3677624156566E+07 0.0000000000000E+00 0.0000000000000E+00 0.4595594214831E+02
1fa 1           0.10000000E+01
 0.3775542225732E+07 0.0000000000000E+00 0.0000000000000E+00 0.4625602193062E+02
1ga 1           0.10000000E+01
 0.3873455892770E+07 0.0000000000000E+00 0.0000000000000E+00 0.4655609570170E+02
1ha 1           0.10000000E+01
 0.3971365080990E+07 0.0000000000000E+00 0.0000000000000E+00 0.4685616338856E+02
1ia 1           0.10000000E+01
 0.4069269714215E+07 0.0000000000000E+00 0.0000000000000E+00 0.4715622494273E+02
1ja 1           0.10000000E+01
 0.4167169716773E+07 0.0000000000000E+00 0.0000000000000E+00 0.4745628029292E+02
1ka 1           0.10000000E+01
 0.4265065013492E+07 0.0000000000000E+00 0.0000000000000E+00 0.4775632940409E+02
1la 1           0.10000000E+01
 0.4362955529693E+07 0.0000000000000E+00 0.0000000000000E+00 0.4805637222483E+02
1ma 1           0.10000000E+01
 0.4460841191181E+07 0.0000000000000E+00 0.0000000000000E+00 0.4835640871503E+02
1na 1           0.10000000E+01
 0.4558721924242E+07 0.0000000000000E+00 0.0000000000000E+00 0.4865643885130E+02
1oa 1           0.10000000E+01
 0.4656597655635E+07 0.0000000000000E+00 0.0000000000000E+00 0.4895646260286E+02
1pa 1           0.10000000E+01
 0.4754468312583E+07 0.0000000000000E+00 0.0000000000000E+00 0.4925647995399E+02
1qa 1           0.10000000E+01
 0.4852333822774E+07 0.0000000000000E+00 0.0000000000000E+00 0.4955649089942E+02
1ra 1           0.10000000E+01
 0.4950194114345E+07 0.0000000000000E+00 0.0000000000000E+00 0.4985649541761E+02
1sa 1           0.10000000E+01
 0.5048049115887E+07 0.0000000000000E+00 0.0000000000000E+00 0.5015649353475E+02
1ta 1           0.10000000E+01
 0.5145898756427E+07 0.0000000000000E+00 0.0000000000000E+00 0.5045648523377E+02
1ua 1           0.10000000E+01
 0.5243742965434E+07 0.0000000000000E+00 0.0000000000000E+00 0.5075647054199E+02